
     RDKit          3D

 34 36  0  0  0  0  0  0  0  0999 V2000
    4.5843   -1.7872   -0.4660 O   0  0  0  0  0  0  0  0  0  0  0  0
    3.5339   -1.1165   -0.2841 C   0  0  0  0  0  0  0  0  0  0  0  0
    2.2379   -1.8127   -0.2318 C   0  0  0  0  0  0  0  0  0  0  0  0
    2.2037   -3.0660   -0.3648 O   0  0  0  0  0  0  0  0  0  0  0  0
    3.5789    0.3623   -0.1212 C   0  0  0  0  0  0  0  0  0  0  0  0
    4.7700    1.1081   -0.1543 O   0  0  0  0  0  0  0  0  0  0  0  0
    6.0760    0.5756   -0.3425 C   0  0  0  0  0  0  0  0  0  0  0  0
    2.4381    1.0383    0.0676 C   0  0  0  0  0  0  0  0  0  0  0  0
    1.1135    0.3741    0.1225 C   0  0  0  0  0  0  0  0  0  0  0  0
    0.9972   -1.0245   -0.0192 C   0  0  0  0  0  0  0  0  0  0  0  0
   -0.2804   -1.6306    0.0361 C   0  0  0  0  0  0  0  0  0  0  0  0
   -0.3906   -3.0116   -0.1577 O   0  0  0  0  0  0  0  0  0  0  0  0
   -1.4276   -0.8349    0.2734 C   0  0  0  0  0  0  0  0  0  0  0  0
   -2.8146   -1.4488    0.3501 C   0  0  0  0  0  0  0  0  0  0  0  0
   -3.7689   -0.5826    0.9395 O   0  0  0  0  0  0  0  0  0  0  0  0
   -3.7909    0.6568    0.2602 C   0  0  1  0  0  0  0  0  0  0  0  0
   -5.0215    1.4462    0.7032 C   0  0  0  0  0  0  0  0  0  0  0  0
   -2.5065    1.4332    0.5823 C   0  0  0  0  0  0  0  0  0  0  0  0
   -1.2972    0.5647    0.3629 C   0  0  0  0  0  0  0  0  0  0  0  0
   -0.0317    1.1552    0.3067 C   0  0  0  0  0  0  0  0  0  0  0  0
    6.8099    1.4070   -0.3200 H   0  0  0  0  0  0  0  0  0  0  0  0
    6.3239   -0.1314    0.4770 H   0  0  0  0  0  0  0  0  0  0  0  0
    6.1472    0.0736   -1.3302 H   0  0  0  0  0  0  0  0  0  0  0  0
    2.4867    2.1151    0.1835 H   0  0  0  0  0  0  0  0  0  0  0  0
   -1.2728   -3.5029   -0.2124 H   0  0  0  0  0  0  0  0  0  0  0  0
   -3.1486   -1.7586   -0.6650 H   0  0  0  0  0  0  0  0  0  0  0  0
   -2.7743   -2.3577    0.9851 H   0  0  0  0  0  0  0  0  0  0  0  0
   -3.8721    0.5082   -0.8434 H   0  0  0  0  0  0  0  0  0  0  0  0
   -5.0041    1.6124    1.8017 H   0  0  0  0  0  0  0  0  0  0  0  0
   -5.0544    2.4293    0.1867 H   0  0  0  0  0  0  0  0  0  0  0  0
   -5.9419    0.8811    0.4442 H   0  0  0  0  0  0  0  0  0  0  0  0
   -2.5139    1.7590    1.6456 H   0  0  0  0  0  0  0  0  0  0  0  0
   -2.4483    2.3351   -0.0661 H   0  0  0  0  0  0  0  0  0  0  0  0
    0.0594    2.2308    0.4069 H   0  0  0  0  0  0  0  0  0  0  0  0
  1  2  2  0
  2  3  1  0
  3  4  2  0
  2  5  1  0
  5  6  1  0
  6  7  1  0
  5  8  2  0
  8  9  1  0
  9 10  2  0
 10 11  1  0
 11 12  1  0
 11 13  2  0
 13 14  1  0
 14 15  1  0
 15 16  1  0
 16 17  1  0
 16 18  1  0
 13 19  1  0
 19 20  2  0
 10  3  1  0
 20  9  1  0
 19 18  1  0
  7 21  1  0
  7 22  1  0
  7 23  1  0
  8 24  1  0
 12 25  1  0
 14 26  1  0
 14 27  1  0
 16 28  1  6
 17 29  1  0
 17 30  1  0
 17 31  1  0
 18 32  1  0
 18 33  1  0
 20 34  1  0
M  END
