
     RDKit          3D

 30 32  0  0  0  0  0  0  0  0999 V2000
    2.2355    0.2178   -1.8556 O   0  0  0  0  0  0  0  0  0  0  0  0
    2.4021   -0.7809   -0.8996 C   0  0  0  0  0  0  0  0  0  0  0  0
    2.3998   -0.4432    0.5720 C   0  0  2  0  0  0  0  0  0  0  0  0
    1.4881   -1.3554    1.4078 C   0  0  0  0  0  0  0  0  0  0  0  0
    0.0985   -1.4041    0.8604 C   0  0  0  0  0  0  0  0  0  0  0  0
   -0.7136   -2.5268    0.7810 C   0  0  0  0  0  0  0  0  0  0  0  0
   -1.8721   -2.2225    0.1587 N   0  0  0  0  0  0  0  0  0  0  0  0
   -1.7980   -0.9141   -0.1533 C   0  0  0  0  0  0  0  0  0  0  0  0
   -2.7495   -0.1447   -0.8312 C   0  0  0  0  0  0  0  0  0  0  0  0
   -3.9603   -0.6739   -1.2757 O   0  0  0  0  0  0  0  0  0  0  0  0
   -2.4509    1.2058   -1.0644 C   0  0  0  0  0  0  0  0  0  0  0  0
   -1.2357    1.7623   -0.6172 C   0  0  0  0  0  0  0  0  0  0  0  0
   -0.2780    0.9792    0.0740 C   0  0  0  0  0  0  0  0  0  0  0  0
    0.9658    1.6121    0.6177 C   0  0  0  0  0  0  0  0  0  0  0  0
    0.9696    3.0816    0.9261 C   0  0  0  0  0  0  0  0  0  0  0  0
    2.0857    0.9680    0.8073 N   0  0  0  0  0  0  0  0  0  0  0  0
   -0.6053   -0.3729    0.2733 C   0  0  0  0  0  0  0  0  0  0  0  0
    2.5927   -1.9707   -1.2694 O   0  0  0  0  0  0  0  0  0  0  0  0
    2.2444   -0.0022   -2.8442 H   0  0  0  0  0  0  0  0  0  0  0  0
    3.4376   -0.6054    0.9341 H   0  0  0  0  0  0  0  0  0  0  0  0
    1.9140   -2.3826    1.4221 H   0  0  0  0  0  0  0  0  0  0  0  0
    1.4517   -0.9917    2.4571 H   0  0  0  0  0  0  0  0  0  0  0  0
   -0.4608   -3.5171    1.1372 H   0  0  0  0  0  0  0  0  0  0  0  0
   -2.6508   -2.8869   -0.0442 H   0  0  0  0  0  0  0  0  0  0  0  0
   -4.2157   -1.6418   -1.1283 H   0  0  0  0  0  0  0  0  0  0  0  0
   -3.1622    1.8304   -1.5896 H   0  0  0  0  0  0  0  0  0  0  0  0
   -1.0516    2.8091   -0.8193 H   0  0  0  0  0  0  0  0  0  0  0  0
    0.0088    3.3798    1.3963 H   0  0  0  0  0  0  0  0  0  0  0  0
    1.7882    3.3320    1.6347 H   0  0  0  0  0  0  0  0  0  0  0  0
    1.1217    3.6591   -0.0096 H   0  0  0  0  0  0  0  0  0  0  0  0
  1  2  1  0
  2  3  1  0
  3  4  1  0
  4  5  1  0
  5  6  2  0
  6  7  1  0
  7  8  1  0
  8  9  2  0
  9 10  1  0
  9 11  1  0
 11 12  2  0
 12 13  1  0
 13 14  1  0
 14 15  1  0
 14 16  2  0
 13 17  2  0
  2 18  2  0
 16  3  1  0
 17  5  1  0
 17  8  1  0
  1 19  1  0
  3 20  1  1
  4 21  1  0
  4 22  1  0
  6 23  1  0
  7 24  1  0
 10 25  1  0
 11 26  1  0
 12 27  1  0
 15 28  1  0
 15 29  1  0
 15 30  1  0
M  END
