
     RDKit          3D

 49 51  0  0  0  0  0  0  0  0999 V2000
    2.0349   -1.5641   -1.4282 O   0  0  0  0  0  0  0  0  0  0  0  0
    1.5841   -0.5849   -0.7741 C   0  0  0  0  0  0  0  0  0  0  0  0
    0.0723   -0.4045   -0.7223 C   0  0  2  0  0  0  0  0  0  0  0  0
   -0.4021   -0.6278   -2.0264 O   0  0  0  0  0  0  0  0  0  0  0  0
   -0.3411    0.9959   -0.2395 C   0  0  0  0  0  0  0  0  0  0  0  0
   -1.7049    1.4196   -0.2675 C   0  0  0  0  0  0  0  0  0  0  0  0
   -2.0450    2.7217    0.2009 C   0  0  0  0  0  0  0  0  0  0  0  0
   -3.4646    3.2345    0.2117 C   0  0  0  0  0  0  0  0  0  0  0  0
   -1.0426    3.5654    0.6893 C   0  0  0  0  0  0  0  0  0  0  0  0
    0.2735    3.1377    0.7540 C   0  0  0  0  0  0  0  0  0  0  0  0
    0.6329    1.8630    0.3089 C   0  0  0  0  0  0  0  0  0  0  0  0
    2.0409    1.4528    0.4602 C   0  0  0  0  0  0  0  0  0  0  0  0
    2.5238    0.3095   -0.0489 C   0  0  0  0  0  0  0  0  0  0  0  0
    4.0055   -0.0829    0.1435 C   0  0  0  0  0  0  0  0  0  0  0  0
    4.7154   -0.2903   -1.2154 C   0  0  0  0  0  0  0  0  0  0  0  0
    4.7088    0.9023    0.8699 O   0  0  0  0  0  0  0  0  0  0  0  0
    4.0868   -1.3775    0.9683 C   0  0  0  0  0  0  0  0  0  0  0  0
   -2.7941    0.4502   -0.6941 C   0  0  0  0  0  0  0  0  0  0  0  0
   -2.9619   -0.6769    0.3357 C   0  0  0  0  0  0  0  0  0  0  0  0
   -1.9938   -1.8846    0.1851 C   0  0  0  0  0  0  0  0  0  0  0  0
   -2.2643   -2.8312    1.3815 C   0  0  0  0  0  0  0  0  0  0  0  0
   -2.3135   -2.6976   -1.0964 C   0  0  0  0  0  0  0  0  0  0  0  0
   -0.4818   -1.4840    0.2578 C   0  0  0  0  0  0  0  0  0  0  0  0
   -0.0639    0.1073   -2.6042 H   0  0  0  0  0  0  0  0  0  0  0  0
   -4.0986    2.5803    0.8466 H   0  0  0  0  0  0  0  0  0  0  0  0
   -3.8638    3.2636   -0.8239 H   0  0  0  0  0  0  0  0  0  0  0  0
   -3.5321    4.2642    0.6233 H   0  0  0  0  0  0  0  0  0  0  0  0
   -1.2816    4.5594    1.0478 H   0  0  0  0  0  0  0  0  0  0  0  0
    1.0188    3.8093    1.1639 H   0  0  0  0  0  0  0  0  0  0  0  0
    2.6871    2.1255    1.0078 H   0  0  0  0  0  0  0  0  0  0  0  0
    5.8149   -0.3455   -1.0628 H   0  0  0  0  0  0  0  0  0  0  0  0
    4.5031    0.5615   -1.8966 H   0  0  0  0  0  0  0  0  0  0  0  0
    4.4095   -1.2315   -1.7145 H   0  0  0  0  0  0  0  0  0  0  0  0
    4.8362    1.6932    0.2811 H   0  0  0  0  0  0  0  0  0  0  0  0
    5.1484   -1.6349    1.1734 H   0  0  0  0  0  0  0  0  0  0  0  0
    3.5687   -1.2432    1.9424 H   0  0  0  0  0  0  0  0  0  0  0  0
    3.6223   -2.2349    0.4385 H   0  0  0  0  0  0  0  0  0  0  0  0
   -3.7755    0.9514   -0.7916 H   0  0  0  0  0  0  0  0  0  0  0  0
   -2.6201    0.0746   -1.7162 H   0  0  0  0  0  0  0  0  0  0  0  0
   -4.0066   -1.0541    0.2579 H   0  0  0  0  0  0  0  0  0  0  0  0
   -2.8706   -0.2436    1.3577 H   0  0  0  0  0  0  0  0  0  0  0  0
   -3.3251   -3.1644    1.3960 H   0  0  0  0  0  0  0  0  0  0  0  0
   -1.6211   -3.7365    1.3247 H   0  0  0  0  0  0  0  0  0  0  0  0
   -2.0556   -2.3223    2.3478 H   0  0  0  0  0  0  0  0  0  0  0  0
   -1.6009   -3.5427   -1.2108 H   0  0  0  0  0  0  0  0  0  0  0  0
   -3.3391   -3.1226   -1.0409 H   0  0  0  0  0  0  0  0  0  0  0  0
   -2.2767   -2.0955   -2.0209 H   0  0  0  0  0  0  0  0  0  0  0  0
    0.1031   -2.4233    0.1270 H   0  0  0  0  0  0  0  0  0  0  0  0
   -0.2503   -1.1415    1.2925 H   0  0  0  0  0  0  0  0  0  0  0  0
  1  2  2  0
  2  3  1  0
  3  4  1  6
  3  5  1  0
  5  6  2  0
  6  7  1  0
  7  8  1  0
  7  9  2  0
  9 10  1  0
 10 11  2  0
 11 12  1  0
 12 13  2  0
 13 14  1  0
 14 15  1  0
 14 16  1  0
 14 17  1  0
  6 18  1  0
 18 19  1  0
 19 20  1  0
 20 21  1  0
 20 22  1  0
 20 23  1  0
 13  2  1  0
 23  3  1  0
 11  5  1  0
  4 24  1  0
  8 25  1  0
  8 26  1  0
  8 27  1  0
  9 28  1  0
 10 29  1  0
 12 30  1  0
 15 31  1  0
 15 32  1  0
 15 33  1  0
 16 34  1  0
 17 35  1  0
 17 36  1  0
 17 37  1  0
 18 38  1  0
 18 39  1  0
 19 40  1  0
 19 41  1  0
 21 42  1  0
 21 43  1  0
 21 44  1  0
 22 45  1  0
 22 46  1  0
 22 47  1  0
 23 48  1  0
 23 49  1  0
M  END
