
     RDKit          3D

 59 65  0  0  0  0  0  0  0  0999 V2000
   -5.0629    4.0529   -0.4161 C   0  0  0  0  0  0  0  0  0  0  0  0
   -5.4314    2.8391    0.2388 O   0  0  0  0  0  0  0  0  0  0  0  0
   -4.6057    1.7086    0.3335 C   0  0  0  0  0  0  0  0  0  0  0  0
   -5.0799    0.5965    1.0385 C   0  0  0  0  0  0  0  0  0  0  0  0
   -4.2806   -0.5459    1.1908 C   0  0  0  0  0  0  0  0  0  0  0  0
   -2.9935   -0.5870    0.6041 C   0  0  0  0  0  0  0  0  0  0  0  0
   -2.1759   -1.7173    0.7693 C   0  0  0  0  0  0  0  0  0  0  0  0
   -2.6465   -2.8085    1.5366 C   0  0  0  0  0  0  0  0  0  0  0  0
   -1.7755   -3.9843    1.7320 C   0  0  0  0  0  0  0  0  0  0  0  0
   -2.1600   -4.9766    2.4082 O   0  0  0  0  0  0  0  0  0  0  0  0
   -3.9278   -2.7621    2.1086 C   0  0  0  0  0  0  0  0  0  0  0  0
   -4.7399   -1.6411    1.9339 C   0  0  0  0  0  0  0  0  0  0  0  0
   -2.5279    0.5188   -0.1185 C   0  0  0  0  0  0  0  0  0  0  0  0
   -1.2568    0.5154   -0.6979 O   0  0  0  0  0  0  0  0  0  0  0  0
   -0.3834   -0.6181   -0.7834 C   0  0  2  0  0  0  0  0  0  0  0  0
    1.0065   -0.1250   -0.3766 C   0  0  0  0  0  0  0  0  0  0  0  0
    1.1394    0.5499    0.8458 C   0  0  0  0  0  0  0  0  0  0  0  0
    2.3671    1.0481    1.2582 C   0  0  0  0  0  0  0  0  0  0  0  0
    3.5000    0.9260    0.4384 C   0  0  0  0  0  0  0  0  0  0  0  0
    3.3950    0.2395   -0.8049 C   0  0  0  0  0  0  0  0  0  0  0  0
    4.5189    0.2300   -1.6562 C   0  0  0  0  0  0  0  0  0  0  0  0
    5.7233    0.8066   -1.2609 C   0  0  0  0  0  0  0  0  0  0  0  0
    5.8408    1.4359   -0.0203 C   0  0  0  0  0  0  0  0  0  0  0  0
    7.0752    1.9589    0.3635 O   0  0  0  0  0  0  0  0  0  0  0  0
    4.7191    1.5246    0.8309 C   0  0  0  0  0  0  0  0  0  0  0  0
    4.7687    2.1989    2.0648 O   0  0  0  0  0  0  0  0  0  0  0  0
    5.5938    3.3265    2.3511 C   0  0  0  0  0  0  0  0  0  0  0  0
    2.1506   -0.3565   -1.1729 C   0  0  0  0  0  0  0  0  0  0  0  0
    1.9749   -1.2382   -2.3528 C   0  0  0  0  0  0  0  0  0  0  0  0
    2.9384   -1.8759   -2.8498 O   0  0  0  0  0  0  0  0  0  0  0  0
   -0.4653   -1.1254   -2.2121 C   0  0  0  0  0  0  0  0  0  0  0  0
   -1.7533   -1.2915   -2.7530 O   0  0  0  0  0  0  0  0  0  0  0  0
   -2.0387   -1.7596   -4.0661 C   0  0  0  0  0  0  0  0  0  0  0  0
    0.6378   -1.4499   -2.9061 C   0  0  0  0  0  0  0  0  0  0  0  0
   -0.8221   -1.7543    0.1400 C   0  0  0  0  0  0  0  0  0  0  0  0
   -0.0258   -2.8303    0.3082 C   0  0  0  0  0  0  0  0  0  0  0  0
   -0.4440   -3.9821    1.1172 C   0  0  0  0  0  0  0  0  0  0  0  0
    0.3357   -4.9592    1.2726 O   0  0  0  0  0  0  0  0  0  0  0  0
   -3.3238    1.6605   -0.2463 C   0  0  0  0  0  0  0  0  0  0  0  0
   -5.8912    4.7835   -0.3177 H   0  0  0  0  0  0  0  0  0  0  0  0
   -4.8794    3.8630   -1.4976 H   0  0  0  0  0  0  0  0  0  0  0  0
   -4.1516    4.4853    0.0545 H   0  0  0  0  0  0  0  0  0  0  0  0
   -6.0678    0.6363    1.4860 H   0  0  0  0  0  0  0  0  0  0  0  0
   -4.3005   -3.5942    2.6946 H   0  0  0  0  0  0  0  0  0  0  0  0
   -5.7238   -1.6276    2.3916 H   0  0  0  0  0  0  0  0  0  0  0  0
    0.2767    0.6939    1.4864 H   0  0  0  0  0  0  0  0  0  0  0  0
    2.4141    1.5660    2.2089 H   0  0  0  0  0  0  0  0  0  0  0  0
    4.4835   -0.1743   -2.6532 H   0  0  0  0  0  0  0  0  0  0  0  0
    6.5735    0.7662   -1.9282 H   0  0  0  0  0  0  0  0  0  0  0  0
    7.8965    1.8790   -0.2260 H   0  0  0  0  0  0  0  0  0  0  0  0
    5.2178    3.8252    3.2677 H   0  0  0  0  0  0  0  0  0  0  0  0
    5.5585    4.0524    1.5108 H   0  0  0  0  0  0  0  0  0  0  0  0
    6.6342    3.0071    2.5448 H   0  0  0  0  0  0  0  0  0  0  0  0
   -3.1308   -1.6855   -4.2451 H   0  0  0  0  0  0  0  0  0  0  0  0
   -1.5138   -1.1391   -4.8210 H   0  0  0  0  0  0  0  0  0  0  0  0
   -1.7357   -2.8208   -4.1632 H   0  0  0  0  0  0  0  0  0  0  0  0
    0.5637   -1.8968   -3.8858 H   0  0  0  0  0  0  0  0  0  0  0  0
    0.9440   -2.8726   -0.1703 H   0  0  0  0  0  0  0  0  0  0  0  0
   -2.9323    2.5050   -0.7944 H   0  0  0  0  0  0  0  0  0  0  0  0
  1  2  1  0
  2  3  1  0
  3  4  2  0
  4  5  1  0
  5  6  2  0
  6  7  1  0
  7  8  2  0
  8  9  1  0
  9 10  2  0
  8 11  1  0
 11 12  2  0
  6 13  1  0
 13 14  1  0
 15 14  1  6
 15 16  1  0
 16 17  2  0
 17 18  1  0
 18 19  2  0
 19 20  1  0
 20 21  1  0
 21 22  2  0
 22 23  1  0
 23 24  1  0
 23 25  2  0
 25 26  1  0
 26 27  1  0
 16 28  1  0
 28 29  1  0
 29 30  2  0
 15 31  1  0
 31 32  1  0
 32 33  1  0
 31 34  2  0
 15 35  1  0
 35 36  2  0
 36 37  1  0
 37 38  2  0
 13 39  2  0
 39  3  1  0
 12  5  1  0
 35  7  1  0
 37  9  1  0
 25 19  1  0
 28 20  2  0
 34 29  1  0
  1 40  1  0
  1 41  1  0
  1 42  1  0
  4 43  1  0
 11 44  1  0
 12 45  1  0
 17 46  1  0
 18 47  1  0
 21 48  1  0
 22 49  1  0
 24 50  1  0
 27 51  1  0
 27 52  1  0
 27 53  1  0
 33 54  1  0
 33 55  1  0
 33 56  1  0
 34 57  1  0
 36 58  1  0
 39 59  1  0
M  END
