
     RDKit          3D

 32 33  0  0  0  0  0  0  0  0999 V2000
   -5.6601    0.9260    1.5011 O   0  0  0  0  0  0  0  0  0  0  0  0
   -4.4069    0.4714    1.0880 C   0  0  0  0  0  0  0  0  0  0  0  0
   -4.3253   -0.7657    0.4471 C   0  0  0  0  0  0  0  0  0  0  0  0
   -3.0933   -1.2664    0.0281 C   0  0  0  0  0  0  0  0  0  0  0  0
   -1.9140   -0.5367    0.2433 C   0  0  0  0  0  0  0  0  0  0  0  0
   -0.6249   -1.1366   -0.1573 C   0  0  0  0  0  0  0  0  0  0  0  0
    0.3968   -1.1212    0.6295 N   0  0  0  0  0  0  0  0  0  0  0  0
    1.5776   -1.8132    0.1459 C   0  0  2  0  0  0  0  0  0  0  0  0
    2.6314   -0.8135   -0.2535 C   0  0  0  0  0  0  0  0  0  0  0  0
    2.3284    0.2485   -1.1721 N   0  0  0  0  0  0  0  0  0  0  0  0
    3.2940    1.2910   -1.5073 C   0  0  0  0  0  0  0  0  0  0  0  0
    3.4537    2.2326   -0.3574 C   0  0  0  0  0  0  0  0  0  0  0  0
    4.5848    2.1590    0.4491 O   0  0  0  0  0  0  0  0  0  0  0  0
    2.5498    3.0722   -0.1007 O   0  0  0  0  0  0  0  0  0  0  0  0
    3.7942   -0.9241    0.2218 O   0  0  0  0  0  0  0  0  0  0  0  0
    1.1458   -2.6963   -1.0329 C   0  0  0  0  0  0  0  0  0  0  0  0
   -0.4291   -2.0487   -1.6799 S   0  0  0  0  0  0  0  0  0  0  0  0
   -1.9926    0.7361    0.8612 C   0  0  0  0  0  0  0  0  0  0  0  0
   -0.8652    1.5467    1.0267 O   0  0  0  0  0  0  0  0  0  0  0  0
   -3.2365    1.2260    1.2975 C   0  0  0  0  0  0  0  0  0  0  0  0
   -3.3095    2.8029    2.0811 Cl  0  0  0  0  0  0  0  0  0  0  0  0
   -5.7956    1.8112    1.9724 H   0  0  0  0  0  0  0  0  0  0  0  0
   -5.2227   -1.3487    0.2822 H   0  0  0  0  0  0  0  0  0  0  0  0
   -3.0602   -2.2416   -0.4418 H   0  0  0  0  0  0  0  0  0  0  0  0
    1.9746   -2.4549    0.9632 H   0  0  0  0  0  0  0  0  0  0  0  0
    1.3848    0.2919   -1.6168 H   0  0  0  0  0  0  0  0  0  0  0  0
    2.9326    1.8597   -2.3912 H   0  0  0  0  0  0  0  0  0  0  0  0
    4.2711    0.8339   -1.7744 H   0  0  0  0  0  0  0  0  0  0  0  0
    4.7001    2.7814    1.2400 H   0  0  0  0  0  0  0  0  0  0  0  0
    0.9704   -3.7339   -0.6764 H   0  0  0  0  0  0  0  0  0  0  0  0
    1.9087   -2.7262   -1.8407 H   0  0  0  0  0  0  0  0  0  0  0  0
    0.0369    1.3373    0.6209 H   0  0  0  0  0  0  0  0  0  0  0  0
  1  2  1  0
  2  3  2  0
  3  4  1  0
  4  5  2  0
  5  6  1  0
  6  7  2  0
  7  8  1  0
  8  9  1  0
  9 10  1  0
 10 11  1  0
 11 12  1  0
 12 13  1  0
 12 14  2  0
  9 15  2  0
  8 16  1  0
 16 17  1  0
  5 18  1  0
 18 19  1  0
 18 20  2  0
 20 21  1  0
 20  2  1  0
 17  6  1  0
  1 22  1  0
  3 23  1  0
  4 24  1  0
  8 25  1  1
 10 26  1  0
 11 27  1  0
 11 28  1  0
 13 29  1  0
 16 30  1  0
 16 31  1  0
 19 32  1  0
M  END
